&model_inputs
fileName='ATMFILENAME'
IOFORM='netcdfpara'
grib='grib2'
DateStr='YYYY-MM-DD_HH:00:00'
MODELNAME='GFS'
fileNameFlux='SFCFILENAME'
fileNameFlat='postxconfig-NT.txt'
/
&NAMPGB
kpo=13,PO=50.,100.,150.,200.,250.,300.,400.,500.,600.,700.,850.,925.,1000.
 /
